this is a new file.
insert a line.
another line.
line.
new line.
Creating a new branch is quick And Simple.
