this is a new file.
insert a line.
another line.
new line.
line.
Creating a new branch is quick &simple.
Creating a new branch is quick AndSimple.
