this is a new file.
insert a line.
another line.
<<<<<<< Updated upstream
line.
=======
>>>>>>> Stashed changes
new line.
Creating a new branch is quick And Simple.
