this is a new file.
insert a line.
another line.
new line.
