this is a new file.
another line.
new line.
